data/ENWL/enwl_4wire/network_25/Feeder_3/LineCode.txt
! Subset of available target linecodes, which are closest to the original ones in terms of positive sequence impedance
! -----------------------------------------------------------------------------------------------------------------------------------------------------------------------------------------------------------------------------------------------------------------------------------------------------------------------------------------------
! original name: BS 5467 1997 table 10 25 (50 Hz)
New LineCode.LC2 nphases=4 Units=km
~ Rmatrix=(0.9592895406852648 0.23168654068526476 0.23129854068526473 0.23169454068526474 | 0.23168654068526476 0.9592795406852648 0.23168654068526476 0.23129654068526476 | 0.23129854068526473 0.23168654068526476 0.9592905406852648 0.23169554068526474 | 0.23169454068526474 0.23129654068526476 0.23169554068526474 0.9592965406852648)
~ Xmatrix=(0.739751735790135 0.6673807357901349 0.6430187357901349 0.667405735790135 | 0.6673807357901349 0.7397187357901349 0.667379735790135 0.6430117357901349 | 0.6430187357901349 0.667379735790135 0.7397647357901349 0.6674047357901349 | 0.667405735790135 0.6430117357901349 0.6674047357901349 0.739778735790135)
~ Cmatrix=(0.0 0.0 0.0 0.0 | 0.0 0.0 0.0 0.0 | 0.0 0.0 0.0 0.0 | 0.0 0.0 0.0 0.0)

! original name: BS 6480 1988 table 17 Cu 120 (50 Hz)
New LineCode.LC5 nphases=4 Units=km
~ Rmatrix=(0.75589946100395 0.59603846100395 0.59085046100395 0.59604046100395 | 0.59603846100395 0.75590046100395 0.5960414610039501 0.59084946100395 | 0.59085046100395 0.5960414610039501 0.75590646100395 0.59604446100395 | 0.59604046100395 0.59084946100395 0.59604446100395 0.75590446100395)
~ Xmatrix=(0.39846989035248354 0.33204889035248353 0.30294389035248354 0.33204889035248353 | 0.33204889035248353 0.3984688903524835 0.33204889035248353 0.30294389035248354 | 0.30294389035248354 0.33204889035248353 0.3984688903524835 0.33204889035248353 | 0.33204889035248353 0.30294389035248354 0.33204889035248353 0.3984688903524835)
~ Cmatrix=(0.0 0.0 0.0 0.0 | 0.0 0.0 0.0 0.0 | 0.0 0.0 0.0 0.0 | 0.0 0.0 0.0 0.0)

! original name: BS 6480 1988 table 17 Cu 16 (50 Hz)
New LineCode.LC6 nphases=4 Units=km
~ Rmatrix=(2.275110332819354 1.1225363328193543 1.1217103328193543 1.1225373328193542 | 1.1225363328193543 2.275110332819354 1.1225363328193543 1.1217103328193543 | 1.1217103328193543 1.1225363328193543 2.275111332819354 1.1225373328193542 | 1.1225373328193542 1.1217103328193543 1.1225373328193542 2.275111332819354)
~ Xmatrix=(1.046570816522671 0.962102816522671 0.932128816522671 0.9621038165226711 | 0.962102816522671 1.046571816522671 0.962102816522671 0.932128816522671 | 0.932128816522671 0.962102816522671 1.046573816522671 0.962102816522671 | 0.9621038165226711 0.932128816522671 0.962102816522671 1.046576816522671)
~ Cmatrix=(0.0 0.0 0.0 0.0 | 0.0 0.0 0.0 0.0 | 0.0 0.0 0.0 0.0 | 0.0 0.0 0.0 0.0)

! original name: Waveform 4-core 185 IEC 60287 (50 Hz)
New LineCode.LC7 nphases=4 Units=km
~ Rmatrix=(0.3216999096062261 0.15245590960622607 0.15245590960622607 0.15245590960622607 | 0.15245590960622607 0.3216999096062261 0.15245590960622607 0.15245590960622607 | 0.15245590960622607 0.15245590960622607 0.3216999096062261 0.15245590960622607 | 0.15245590960622607 0.15245590960622607 0.15245590960622607 0.3216999096062261)
~ Xmatrix=(0.11987978061526439 0.05786578061526437 0.03579378061526439 0.05786578061526437 | 0.05786578061526437 0.11987978061526439 0.05786578061526437 0.03579378061526439 | 0.03579378061526439 0.05786578061526437 0.11987978061526439 0.05786578061526437 | 0.05786578061526437 0.03579378061526439 0.05786578061526437 0.11987978061526439)
~ Cmatrix=(0.0 0.0 0.0 0.0 | 0.0 0.0 0.0 0.0 | 0.0 0.0 0.0 0.0 | 0.0 0.0 0.0 0.0)

! original name: Waveform 4-core 95 IEC 60287 (50 Hz)
New LineCode.LC9 nphases=4 Units=km
~ Rmatrix=(0.5810524166409591 0.2582454166409591 0.2582454166409591 0.2582454166409591 | 0.2582454166409591 0.5810524166409591 0.2582454166409591 0.2582454166409591 | 0.2582454166409591 0.2582454166409591 0.5810524166409591 0.2582454166409591 | 0.2582454166409591 0.2582454166409591 0.2582454166409591 0.5810524166409591)
~ Xmatrix=(0.1975712310879344 0.13605023108793435 0.11406323108793437 0.13605023108793435 | 0.13605023108793435 0.1975712310879344 0.13605023108793435 0.11406323108793437 | 0.11406323108793437 0.13605023108793435 0.1975712310879344 0.13605023108793435 | 0.13605023108793435 0.11406323108793437 0.13605023108793435 0.1975712310879344)
~ Cmatrix=(0.0 0.0 0.0 0.0 | 0.0 0.0 0.0 0.0 | 0.0 0.0 0.0 0.0 | 0.0 0.0 0.0 0.0)
! -----------------------------------------------------------------------------------------------------------------------------------------------------------------------------------------------------------------------------------------------------------------------------------------------------------------------------------------------